LAMMPS (29 Sep 2021 - Update 2)
#Инициализация симмуляции
units           real
atom_style      full
boundary        p p p

# Настройка силового поля
pair_style      lj/cut/tip4p/long 1 2 1 1 0.1546 12
kspace_style    pppm/tip4p 1.0e-4

# Настройка связей и углов
bond_style      harmonic
angle_style     harmonic

read_data tip4p-NPT.data
Reading data file ...
  orthogonal box = (4.0952388 4.0952388 4.0952388) to (35.104760 35.104760 35.104760)
  reading atoms ...
  3000 atoms
  reading velocities ...
  3000 velocities
  scanning bonds ...
  scanning angles ...
  reading bonds ...
  2000 bonds
  reading angles ...
  1000 angles
Finding 1-2 1-3 1-4 neighbors ...
     2 = max # of 1-2 neighbors
     1 = max # of 1-3 neighbors
     1 = max # of 1-4 neighbors
     2 = max # of special neighbors

# Параметры потенциалов
pair_coeff      1 1 0.18521 3.1589 # O-O
pair_coeff      2 2 0.0    0.0     # H-H
pair_coeff      1 2 0.0    0.0     # O-H
pair_modify     tail yes

bond_coeff      1 1000.0 0.9572    # O-H
angle_coeff     1 100.0 104.52     # H-O-H

# Группировка атомов
group           gH2O type 1 2
3000 atoms in group gH2O
group           oxygen type 1
1000 atoms in group oxygen
group           hydrogen type 2
2000 atoms in group hydrogen

# Настройка соседних списков
neighbor        3.0 bin
neigh_modify    delay 0 every 1 check yes

variable        massAll equal mass(all)/6.022e23
variable        volCm3  equal vol*1.0e-24
variable        density_sys equal v_massAll/v_volCm3
compute         msdO oxygen msd

# ------------------------NPT моделирование-------------------
fix npt all npt temp 300.0 300.0 100.0 iso 1.0 1.0 1000.0 # NPT термостат и баростат Ланжевена

fix msd all ave/time 1 1 1000 c_msdO[*] file msd_oxygen.out

thermo_style custom step temp press etotal v_density_sys pe ke c_msdO[4]
thermo 1000 # вывод каждые 1000 шагов

run 500000 # Запуск NPT моделирования на 40000 шагов
PPPM initialization ...
  extracting TIP4P info from pair style
  G vector (1/distance) = 0.22791799
  grid = 15 15 15
  stencil order = 5
  estimated absolute RMS force accuracy = 0.033733287
  estimated relative force accuracy = 0.00010158679
  3d grid and FFT values/proc = 2744 512
  update every 1 steps, delay 0 steps, check yes
Step Temp Press TotEng v_density_sys PotEng KinEng c_msdO[4]
0    195.71919    38623.268   -12235.893    1.0032592   -13985.515    1749.6218            0
Averages over the last 251 of 501 rows, steps 250000 to 500000:
Temp Press TotEng v_density_sys PotEng KinEng c_msdO[4]
299.99 -36.0386 -10971 1.01499 -13652.7 2681.74 109.041
Loop time of 6101.03 on 8 procs for 500000 steps with 3000 atoms
